CM Yagi para a prova
CE
SY L1=666.18e-3
SY L2=658.54e-3
SY L3=609.57e-3
SY L4=604.16e-3
SY L5=598.18e-3
SY D1=0
SY D2=272.54e-3
SY D3=374.74e-3
SY D4=620.03e-3
SY D5=913.01e-3
GW	100	19	D1	-L1/2	0	D1	L1/2	0	4e-3
GW	101	19	D2	-L2/2	0	D2	L2/2	0	4e-3
GW	102	19	D3	-L3/2	0	D3	L3/2	0	4e-3
GW	103	19	D4	-L4/2	0	D4	L4/2	0	4e-3
GW	104	19	D5	-L5/2	0	D5	L5/2	0	4e-3
GE	0
GN	-1
EK
EX	0	101	10	0	1	0	0
FR	0	0	0	0	220	0
EN
